[TITLE]


[JUNCTIONS]
;ID              	Elev        	Demand      	Pattern         
 1251            	2.17        	14.9354838709677	                ;
 1252            	2.3         	16.4516129032258	                ;
 1253            	3.6         	20.2258064516129	                ;
 1254            	3.23        	55.3870967741935	                ;
 1255            	2.22        	9.80645161290322	                ;
 1256            	2.47        	0           	                ;
 1257            	2.31        	0           	                ;
 1258            	0           	2.41935483870968	                ;
 1259            	0           	0           	                ;
 1260            	2.34        	7.25806451612903	                ;
 1261            	3.64        	1.48387096774194	                ;
 1262            	3.36        	0           	                ;
 1263            	2.81        	0           	                ;
 1264            	3.92        	0           	                ;
 1265            	3.07        	0           	                ;
 1266            	13.03       	8.67741935483871	                ;
 1267            	0           	0           	                ;
 1268            	2.33        	0           	                ;
 1269            	2.36        	0           	                ;
 1270            	14.15       	0           	                ;
 1271            	13.61       	0           	                ;
 1272            	3.52        	13.6774193548387	                ;
 1273            	3.11        	6.12903225806452	                ;
 1274            	2.08        	41.5161290322581	                ;
 1275            	2.1         	3.7741935483871	                ;
 1276            	14.89       	3.03225806451613	                ;
 1277            	15.02       	2.74193548387097	                ;
 1278            	2.94        	0           	                ;
 1279            	2.83        	8.09677419354839	                ;
 1280            	2.08        	0           	                ;
 1281            	2.08        	0           	                ;
 1282            	2.16        	109.870967741935	                ;
 1283            	2.16        	0           	                ;
 1284            	2.52        	12.6129032258065	                ;
 1285            	2.08        	2.29032258064516	                ;
 1286            	2.08        	5.06451612903226	                ;
 1287            	2.43        	0           	                ;
 1288            	2.08        	0           	                ;
 1289            	14.98       	0           	                ;
 1290            	15.43       	0           	                ;
 1291            	2.36        	26.8709677419355	                ;
 1292            	15.38       	3.03225806451613	                ;
 1293            	2.2         	98.0322580645161	                ;
 1294            	2.24        	0           	                ;
 1295            	16.53       	0           	                ;
 1296            	16.24       	0           	                ;
 1297            	16.36       	0           	                ;
 1298            	2.33        	0           	                ;
 1299            	3.31        	0           	                ;
 1300            	15.94       	16.2903225806452	                ;
 1301            	17.21       	0           	                ;
 1302            	15.98       	9.25806451612903	                ;
 1303            	16.4        	4.45161290322581	                ;
 1304            	16.14       	3.2258064516129	                ;
 1305            	3.19        	209.903225806452	                ;
 1306            	2.2         	0           	                ;
 1307            	16.36       	0           	                ;
 1308            	15.08       	0           	                ;
 1309            	15.45       	3.90322580645161	                ;
 1310            	2.42        	0           	                ;
 1311            	2.2         	84.5161290322581	                ;
 1312            	4.33        	0           	                ;
 1313            	2.36        	0           	                ;
 1314            	2.41        	13.4516129032258	                ;
 1315            	2.08        	7.32258064516129	                ;
 1316            	2.35        	136.483870967742	                ;
 1317            	2.07        	17.2903225806452	                ;
 1318            	2.08        	21.0645161290323	                ;
 1319            	19.06       	0           	                ;
 1320            	11.44       	18.1935483870968	                ;
 1321            	11.4        	31.3870967741935	                ;
 1322            	9.04        	28.5806451612903	                ;
 1323            	2.47        	6.51612903225806	                ;
 1324            	2.08        	13.3870967741935	                ;
 1325            	2.51        	0           	                ;
 1326            	2.13        	24.5483870967742	                ;
 1327            	2.11        	11.0645161290323	                ;
 1328            	2.36        	0           	                ;
 1329            	12.77       	31.7741935483871	                ;
 1330            	6.6         	6.32258064516129	                ;
 1331            	8.85        	8.96774193548387	                ;
 1332            	15.89       	0           	                ;
 1333            	15.68       	29.5161290322581	                ;
 1334            	9.07        	12.258064516129	                ;
 1335            	12.52       	26.4838709677419	                ;
 1336            	16.01       	15.258064516129	                ;
 1337            	2.36        	60.3548387096774	                ;
 1338            	2.3         	8.2258064516129	                ;
 1339            	2.82        	0.483870967741935	                ;
 1340            	2.32        	48.9677419354839	                ;
 1341            	9.53        	4.09677419354839	                ;
 1342            	2.42        	79.0322580645161	                ;
 1343            	2.44        	1.12903225806452	                ;
 1344            	8.78        	0           	                ;
 1345            	8.58        	3.32258064516129	                ;
 1346            	3.89        	37          	                ;
 1347            	6.56        	0           	                ;
 1348            	6.47        	3.93548387096774	                ;
 1349            	6.87        	13.1935483870968	                ;
 1350            	2.55        	43.3225806451613	                ;
 1351            	6.67        	18.741935483871	                ;
 1352            	3.33        	45          	                ;
 1353            	7.03        	47.7741935483871	                ;
 1354            	2.18        	48.3870967741935	                ;
 1355            	2.19        	49.6451612903226	                ;
 1356            	2.36        	3.2258064516129	                ;
 1357            	2.94        	10.3548387096774	                ;
 1358            	9.39        	28.7096774193548	                ;
 1359            	2.35        	36.8709677419355	                ;
 1360            	12.52       	6.51612903225806	                ;
 1361            	5.65        	14.8387096774194	                ;
 1362            	3.73        	9.70967741935484	                ;
 1363            	6.78        	9.80645161290323	                ;
 1364            	6.56        	2.2258064516129	                ;
 1365            	15.62       	57.3870967741935	                ;
 1366            	2.76        	0           	                ;
 1367            	2.33        	58.9677419354839	                ;
 1368            	2.22        	84.3225806451613	                ;
 1369            	2.15        	72.1290322580645	                ;
 1370            	2.31        	58.7741935483871	                ;
 1371            	3.18        	0           	                ;
 1372            	3.42        	4.25806451612903	                ;
 1373            	19.84       	6.80645161290323	                ;
 1374            	15.85       	12.8387096774194	                ;
 1375            	13.9        	2.06451612903226	                ;
 1376            	12.97       	11.1612903225806	                ;
 1377            	16.29       	1.87096774193548	                ;
 1378            	2.93        	3.35483870967742	                ;
 1379            	11.85       	6.64516129032258	                ;
 1380            	3.01        	6.32258064516129	                ;
 1381            	12.81       	10.8064516129032	                ;
 1382            	5.16        	0           	                ;
 1383            	2.25        	0           	                ;
 1384            	12.48       	0           	                ;
 1385            	12.19       	13.4193548387097	                ;
 1386            	3.24        	4.19354838709677	                ;
 1387            	3.64        	25.3548387096774	                ;
 1388            	3.24        	10.4838709677419	                ;
 1389            	3.05        	0           	                ;
 1390            	2.81        	0           	                ;
 1391            	2.98        	0           	                ;
 1392            	4.39        	11.1612903225806	                ;
 1393            	7.16        	7.67741935483871	                ;
 1394            	2.23        	0.67741935483871	                ;
 1395            	2.29        	0           	                ;
 1396            	7.82        	10.0645161290323	                ;
 1397            	7.59        	51.9354838709678	                ;
 1398            	19.86       	0           	                ;
 1399            	9.48        	2.09677419354839	                ;
 1400            	16.41       	74.9032258064516	                ;
 1401            	2.76        	8.83870967741936	                ;
 1402            	2.12        	36.8709677419355	                ;
 1403            	19.35       	0           	                ;
 1404            	19.44       	10.741935483871	                ;
 1405            	14.66       	0           	                ;
 1406            	11.04       	0           	                ;
 1407            	12.59       	0           	                ;
 1408            	2.42        	0           	                ;
 1409            	6.59        	6.41935483870968	                ;
 1410            	5.38        	0           	                ;
 1411            	2.52        	35.5806451612903	                ;
 1412            	2.39        	0.32258064516129	                ;
 1413            	3.45        	40.9354838709677	                ;
 1414            	2.02        	0           	                ;
 1415            	3.5         	2.19354838709677	                ;
 1416            	2.69        	5.70967741935484	                ;
 1417            	3.07        	33.1935483870968	                ;
 1418            	4.25        	0           	                ;
 1419            	4.29        	0           	                ;
 1420            	4.1         	0           	                ;
 1421            	4.14        	0           	                ;
 1422            	3.75        	0           	                ;
 1423            	2.54        	123.290322580645	                ;
 1424            	5.89        	0           	                ;
 1425            	5.9         	0           	                ;
 1426            	7.49        	48.0322580645161	                ;
 1427            	7.38        	15.4516129032258	                ;
 1428            	2.41        	0           	                ;
 1429            	15.42       	8.45161290322581	                ;
 1430            	18.74       	30.5161290322581	                ;
 1431            	18.74       	5.83870967741935	                ;
 1432            	15.32       	2.80645161290323	                ;
 1433            	15.32       	24.9677419354839	                ;
 1434            	16.41       	24.1935483870968	                ;
 1435            	8.78        	26.2258064516129	                ;
 1436            	20.35       	8.54838709677419	                ;
 1437            	20.6        	0           	                ;
 1438            	20.96       	9.03225806451613	                ;
 1439            	21.09       	15.3225806451613	                ;
 1440            	15.35       	0           	                ;
 1441            	18.18       	2           	                ;
 1442            	19.04       	34.1935483870968	                ;
 1443            	15.49       	6.25806451612903	                ;
 1444            	16.01       	11.3548387096774	                ;
 1445            	15.89       	0           	                ;
 1446            	15.15       	10.2258064516129	                ;
 1447            	15.44       	1.80645161290323	                ;
 1448            	15.15       	28.1612903225806	                ;
 1449            	9           	59.4516129032258	                ;
 1450            	12.73       	14.9677419354839	                ;
 1451            	10.51       	17.8387096774194	                ;
 1452            	9.41        	0.967741935483871	                ;
 1453            	19.85       	13.2258064516129	                ;
 1454            	17.47       	6.16129032258065	                ;
 1455            	14.92       	2.16129032258065	                ;
 1456            	19.86       	0           	                ;
 1457            	19.54       	22.2903225806452	                ;
 1458            	19.53       	3.90322580645161	                ;
 1459            	13.44       	16.258064516129	                ;
 1460            	11.52       	24.7741935483871	                ;
 1461            	14.2        	38.3548387096774	                ;
 1462            	9.75        	5.80645161290323	                ;
 1463            	9.87        	0           	                ;
 1464            	19.41       	14.7096774193548	                ;
 1465            	20.84       	8.2258064516129	                ;
 1466            	20.84       	0           	                ;
 1467            	20.78       	0           	                ;
 1468            	18.25       	0           	                ;
 1469            	16.89       	10.1935483870968	                ;
 1470            	17.98       	3.67741935483871	                ;
 1471            	20.59       	0.838709677419355	                ;
 1472            	15.42       	17.2258064516129	                ;
 1473            	14.64       	8.45161290322581	                ;
 1474            	5.52        	0           	                ;
 1475            	7.73        	20.4516129032258	                ;
 1476            	7.46        	0           	                ;
 1477            	5.56        	0           	                ;
 1478            	5.43        	6.70967741935484	                ;
 1479            	5.53        	0           	                ;
 1480            	6.58        	0           	                ;
 1481            	6.64        	0           	                ;
 1482            	5.38        	0           	                ;
 1483            	6.69        	0           	                ;
 1484            	6.64        	0.32258064516129	                ;
 1485            	16.06       	3.93548387096774	                ;
 1486            	15.86       	0           	                ;
 1487            	9.86        	6.09677419354839	                ;
 1488            	9.68        	8.64516129032258	                ;
 1489            	10.03       	0           	                ;
 1490            	9.76        	0           	                ;
 1491            	12.97       	0           	                ;
 1492            	12.69       	0           	                ;
 1493            	11.45       	4           	                ;
 1494            	11.59       	0           	                ;
 1495            	7.66        	26.8387096774194	                ;
 1496            	2.57        	0           	                ;
 1497            	4.76        	2.87096774193548	                ;
 1498            	4.14        	0           	                ;
 1499            	4.48        	5.09677419354839	                ;
 1500            	4.34        	5.03225806451613	                ;
 1501            	3.96        	0           	                ;
 1502            	5.38        	23.0645161290323	                ;
 1503            	3.88        	16.1290322580645	                ;
 1504            	3.96        	81.258064516129	                ;
 1505            	2.29        	0           	                ;
 1506            	19.85       	0           	                ;
 1507            	13.29       	0           	                ;
 1508            	13.33       	0           	                ;
 1509            	13.3        	0           	                ;
 1510            	3.02        	9.90322580645161	                ;
 1511            	2.81        	0           	                ;
 1512            	2.46        	0           	                ;
 1513            	2.46        	0           	                ;
 1514            	9           	0           	                ;
 1515            	23.38       	0           	                ;
 1516            	23.19       	1.41935483870968	                ;
 1517            	21.09       	0           	                ;
 1518            	20.59       	0           	                ;
 1519            	3.47        	0           	                ;
 1520            	16.91       	1.29032258064516	                ;
 1521            	16.91       	1           	                ;
 1522            	7.27        	23.8064516129032	                ;
 1523            	9.62        	37.3548387096774	                ;
 1524            	12.98       	60.6451612903226	                ;
 1525            	6.08        	15.7096774193548	                ;
 1526            	6.39        	0           	                ;
 1527            	6.41        	0           	                ;
 1528            	14.57       	4.83870967741935	                ;
 1529            	14.25       	0           	                ;
 1530            	13.15       	13.4193548387097	                ;
 1531            	12.97       	0           	                ;
 1532            	13.38       	0           	                ;
 1533            	10.03       	0           	                ;
 1534            	9.78        	0           	                ;
 1535            	6.78        	4.32258064516129	                ;
 1536            	6.86        	0           	                ;
 1537            	7.43        	0           	                ;
 1538            	6.04        	5.80645161290323	                ;
 1539            	6.61        	0           	                ;
 1540            	7.89        	0           	                ;
 1541            	8.77        	48.6774193548387	                ;
 1542            	7.68        	5.7741935483871	                ;
 1543            	5.69        	27.0967741935484	                ;
 1544            	6.21        	0           	                ;
 1545            	6.21        	1.45161290322581	                ;
 1546            	4.83        	5.09677419354839	                ;
 1547            	6.72        	0           	                ;
 1548            	6.1         	0           	                ;
 1549            	19.98       	0           	                ;
 1550            	13.4        	0           	                ;
 1551            	16.5        	14.258064516129	                ;
 1552            	21.95       	20.0645161290323	                ;
 1553            	21.02       	6.83870967741935	                ;
 1554            	2.57        	0           	                ;
 1555            	2.18        	0           	                ;
 1556            	2.13        	44.6774193548387	                ;
 1557            	2.15        	0           	                ;
 1558            	2.18        	64.1290322580645	                ;
 1559            	2.13        	0           	                ;
 1560            	3.66        	0           	                ;
 1561            	3.22        	0           	                ;
 1562            	3.22        	0           	                ;
 1563            	2.21        	129.774193548387	                ;
 1564            	2.46        	66.0322580645161	                ;
 1565            	2.4         	0           	                ;
 1566            	4.07        	0           	                ;
 1567            	4.27        	24.5161290322581	                ;
 1568            	2.37        	0           	                ;
 1569            	2.27        	30.8709677419355	                ;
 1570            	2.3         	14.1935483870968	                ;
 1571            	2.36        	92.8387096774193	                ;
 1572            	2.47        	56.3548387096774	                ;
 1573            	3.65        	0           	                ;
 1574            	3.7         	37.3548387096774	                ;
 1575            	4.8         	5.83870967741935	                ;
 1576            	4.8         	0           	                ;
 1577            	4.45        	1.06451612903226	                ;
 1578            	4.45        	0           	                ;
 1579            	2.39        	0           	                ;
 1580            	2.37        	0           	                ;
 1581            	4.99        	0           	                ;
 1582            	4.99        	0           	                ;
 1583            	2.36        	21.5806451612903	                ;
 1584            	3.58        	15.6129032258065	                ;
 1585            	4.03        	24.6774193548387	                ;
 1586            	2.79        	23.7741935483871	                ;
 1587            	2.37        	0.67741935483871	                ;
 1588            	2.26        	39.4193548387097	                ;
 1589            	2.23        	0           	                ;
 1590            	2.21        	13.9032258064516	                ;
 1591            	3.83        	416.967741935484	                ;
 1592            	2.22        	29.1935483870968	                ;
 1593            	2.18        	0           	                ;
 1594            	3.61        	3.64516129032258	                ;
 1595            	3.61        	5.12903225806452	                ;
 1596            	4.28        	0           	                ;
 1597            	3.93        	0           	                ;
 1598            	2.32        	0           	                ;
 1599            	2.19        	0           	                ;
 1600            	5.56        	15          	                ;
 1601            	3.3         	3.67741935483871	                ;
 1602            	0           	0           	                ;
 1603            	15.76       	8.80645161290323	                ;
 1604            	16.15       	5.74193548387097	                ;
 1605            	13.05       	31.258064516129	                ;
 1606            	14.02       	6.48387096774194	                ;
 1607            	13.01       	14.4193548387097	                ;
 1608            	10.02       	0           	                ;
 1609            	6.32        	50          	                ;
 1610            	11.89       	59.1935483870968	                ;
 1611            	14.11       	0           	                ;
 1612            	15.4        	5.61290322580645	                ;
 1613            	0           	0           	                ;
 1614            	3.03        	8.58064516129032	                ;
 1615            	13.62       	0           	                ;
 1616            	2.2         	25.0645161290323	                ;
 1617            	2.17        	1.12903225806452	                ;
 1618            	2.25        	3.16129032258065	                ;
 1619            	2.23        	0           	                ;
 1620            	2.23        	0           	                ;
 1621            	2.26        	56.4516129032258	                ;
 1622            	2.29        	0.774193548387097	                ;
 1623            	4.08        	0           	                ;
 1624            	2.17        	0           	                ;
 1625            	2.27        	0           	                ;

[RESERVOIRS]
;ID              	Head        	Pattern         
 1               	0           	                ;

[TANKS]
;ID              	Elevation   	InitLevel   MinLevel    	MaxLevel    	Diameter    	MinVol      	VolCurve

[PIPES]
;ID              	Node1           	Node2           	Length      	Diameter    	Roughness   	MinorLoss   	Status
 1               	1251            	1252            	99.85207    	150         	100         	0           	      ;
 2               	1253            	1254            	90.80138    	200         	100         	0           	      ;
 3               	1252            	1255            	138.9884    	100         	100         	0           	      ;
 4               	1256            	1257            	3.89455     	100         	100         	0           	      ;
 5               	1258            	1259            	29.42152    	200         	100         	0           	      ;
 6               	1260            	1261            	299.69045   	200         	100         	0           	      ;
 7               	1262            	1263            	365.68033   	500         	100         	0           	      ;
 8               	1264            	1265            	36.89272    	200         	100         	0           	      ;
 9               	1266            	1267            	52.70443    	200         	100         	0           	      ;
 10              	1268            	1269            	343.95835   	500         	100         	0           	      ;
 11              	1270            	1271            	55.36887    	350         	100         	0           	      ;
 12              	1272            	1273            	59.02755    	200         	100         	0           	      ;
 13              	1274            	1275            	53.45989    	100         	100         	0           	      ;
 14              	1276            	1277            	4.64612     	100         	100         	0           	      ;
 15              	1278            	1279            	20.35739    	200         	100         	0           	      ;
 16              	1280            	1281            	4.83131     	300         	100         	0           	      ;
 17              	1282            	1283            	1.3304      	80          	100         	0           	      ;
 18              	1284            	1285            	59.10035    	100         	100         	0           	      ;
 19              	1286            	1287            	145.96826   	80          	100         	0           	      ;
 20              	1281            	1288            	12.42123    	300         	100         	0           	      ;
 21              	1289            	1290            	9.98924     	350         	100         	0           	      ;
 22              	1291            	1284            	107.34099   	100         	100         	0           	      ;
 23              	1285            	1282            	31.58923    	100         	100         	0           	      ;
 24              	1266            	1292            	237.49949   	200         	100         	0           	      ;
 25              	1282            	1293            	90.03961    	100         	100         	0           	      ;
 26              	1269            	1294            	127.24815   	500         	100         	0           	      ;
 27              	1290            	1295            	234.29767   	350         	100         	0           	      ;
 28              	1296            	1297            	3.54998     	200         	100         	0           	      ;
 29              	1298            	1299            	17.32016    	100         	100         	0           	      ;
 30              	1300            	1301            	76.23435    	200         	100         	0           	      ;
 31              	1301            	1296            	25.91314    	200         	100         	0           	      ;
 32              	1302            	1303            	104.1564    	100         	100         	0           	      ;
 33              	1292            	1304            	218.06952   	200         	100         	0           	      ;
 34              	1296            	1302            	41.95895    	100         	100         	0           	      ;
 35              	1295            	1305            	266.12206   	200         	100         	0           	      ;
 36              	1306            	1298            	20.83572    	200         	100         	0           	      ;
 37              	1296            	1307            	5.46478     	200         	100         	0           	      ;
 38              	1308            	1309            	7.10314     	100         	100         	0           	      ;
 39              	1310            	1311            	50.81383    	75          	100         	0           	      ;
 40              	1312            	1305            	10.11644    	100         	100         	0           	      ;
 41              	1313            	1314            	10.11644    	100         	100         	0           	      ;
 42              	1315            	1281            	47.30132    	300         	100         	0           	      ;
 43              	1286            	1316            	118.17891   	100         	100         	0           	      ;
 44              	1256            	1315            	119.27807   	300         	100         	0           	      ;
 45              	1317            	1315            	87.46622    	75          	100         	0           	      ;
 46              	1288            	1318            	5.04131     	80          	100         	0           	      ;
 47              	1314            	1292            	262.30829   	200         	100         	0           	      ;
 48              	1319            	1295            	239.42006   	350         	100         	0           	      ;