[TITLE]


[JUNCTIONS]
;ID              	Elev        	Demand      	Pattern         
 1236            	2.17        	14.9354838709677	4블록           	;
 1237            	2.3         	16.4516129032258	4블록           	;
 1238            	3.6         	20.2258064516129	4블록           	;
 1239            	3.23        	55.3870967741935	4블록           	;
 1240            	2.22        	9.80645161290323	4블록           	;
 1241            	2.47        	0           	                	;
 1242            	2.31        	0           	                	;
 1243            	0           	2.41935483870968	4블록           	;
 1244            	0           	0           	                	;
 1245            	2.34        	7.25806451612903	4블록           	;
 1246            	3.64        	1.48387096774194	4블록           	;
 1247            	3.36        	0           	                	;
 1248            	2.81        	0           	                	;
 1249            	3.92        	0           	                	;
 1250            	3.07        	0           	                	;
 1251            	13.03       	8.67741935483871	3블록           	;
 1252            	0           	0           	                	;
 1254            	2.36        	0           	                	;
 1255            	14.15       	0           	                	;
 1256            	13.61       	0           	                	;
 1257            	3.52        	13.6774193548387	3블록           	;
 1258            	3.11        	6.12903225806452	3블록           	;
 1259            	2.08        	41.5161290322581	3블록           	;
 1260            	2.1         	3.7741935483871	3블록           	;
 1261            	14.89       	3.03225806451613	3블록           	;
 1262            	15.02       	2.74193548387097	3블록           	;
 1263            	2.94        	0           	                	;
 1264            	2.83        	8.09677419354839	4블록           	;
 1265            	2.08        	0           	                	;
 1266            	2.08        	0           	                	;
 1267            	2.16        	109.870967741935	3블록           	;
 1268            	2.16        	0           	                	;
 1269            	2.52        	12.6129032258065	3블록           	;
 1270            	2.08        	2.29032258064516	3블록           	;
 1271            	2.08        	5.06451612903226	3블록           	;
 1272            	2.43        	0           	                	;
 1273            	2.08        	0           	                	;
 1274            	14.98       	0           	                	;
 1275            	15.43       	0           	                	;
 1276            	2.36        	26.8709677419355	3블록           	;
 1277            	15.38       	3.03225806451613	3블록           	;
 1278            	2.2         	98.0322580645161	3블록           	;
 1279            	2.24        	0           	                	;
 1280            	16.53       	0           	                	;
 1281            	16.24       	0           	                	;
 1282            	16.36       	0           	                	;
 1283            	2.33        	0           	                	;
 1284            	3.31        	0           	                	;
 1285            	15.94       	16.2903225806452	3블록           	;
 1286            	17.21       	0           	                	;
 1287            	15.98       	9.25806451612903	3블록           	;
 1288            	16.4        	4.45161290322581	3블록           	;
 1289            	16.14       	3.2258064516129	3블록           	;
 1290            	3.19        	209.903225806452	3블록           	;
 1291            	2.2         	0           	                	;
 1292            	16.36       	0           	                	;
 1293            	15.08       	0           	                	;
 1294            	15.45       	3.90322580645161	3블록           	;
 1295            	2.42        	0           	                	;
 1296            	2.2         	84.5161290322581	3블록           	;
 1297            	4.33        	0           	                	;
 1298            	2.36        	0           	                	;
 1299            	2.41        	13.4516129032258	3블록           	;
 1300            	2.08        	7.32258064516129	3블록           	;
 1301            	2.35        	136.483870967742	3블록           	;
 1302            	2.07        	17.2903225806452	3블록           	;
 1303            	2.08        	21.0645161290323	3블록           	;
 1304            	19.06       	0           	                	;
 1305            	11.44       	18.1935483870968	3블록           	;
 1306            	11.4        	31.3870967741935	3블록           	;
 1307            	9.04        	28.5806451612903	3블록           	;
 1308            	2.47        	6.51612903225806	3블록           	;
 1309            	2.08        	13.3870967741935	3블록           	;
 1310            	2.51        	0           	                	;
 1311            	2.13        	24.5483870967742	3블록           	;
 1312            	2.11        	11.0645161290323	3블록           	;
 1313            	2.36        	0           	                	;
 1314            	12.77       	31.7741935483871	3블록           	;
 1315            	6.6         	6.32258064516129	3블록           	;
 1316            	8.85        	8.96774193548387	3블록           	;
 1317            	15.89       	0           	                	;
 1318            	15.68       	29.5161290322581	3블록           	;
 1319            	9.07        	12.258064516129	3블록           	;
 1320            	12.52       	26.4838709677419	3블록           	;
 1321            	16.01       	15.258064516129	3블록           	;
 1322            	2.36        	60.3548387096774	4블록           	;
 1323            	2.3         	8.2258064516129	3블록           	;
 1324            	2.82        	0.483870967741935	3블록           	;
 1325            	2.32        	48.9677419354839	3블록           	;
 1326            	9.53        	4.09677419354839	3블록           	;
 1327            	2.42        	79.0322580645161	3블록           	;
 1328            	2.44        	1.12903225806452	3블록           	;
 1329            	8.78        	0           	                	;
 1330            	8.58        	3.32258064516129	3블록           	;
 1331            	3.89        	37          	3블록           	;
 1332            	6.56        	0           	                	;
 1333            	6.47        	3.93548387096774	3블록           	;
 1334            	6.87        	13.1935483870968	3블록           	;
 1335            	2.55        	43.3225806451613	3블록           	;
 1336            	6.67        	18.741935483871	3블록           	;
 1337            	3.33        	45          	3블록           	;
 1338            	7.03        	47.7741935483871	3블록           	;
 1339            	2.18        	48.3870967741935	3블록           	;
 1340            	2.19        	49.6451612903226	3블록           	;
 1341            	2.36        	3.2258064516129	3블록           	;
 1342            	2.94        	10.3548387096774	3블록           	;
 1343            	9.39        	28.7096774193548	3블록           	;
 1344            	2.35        	36.8709677419355	3블록           	;
 1345            	12.52       	6.51612903225806	3블록           	;
 1346            	5.65        	14.8387096774194	3블록           	;
 1347            	3.73        	9.70967741935484	3블록           	;
 1348            	6.78        	9.80645161290323	3블록           	;
 1349            	6.56        	2.2258064516129	3블록           	;
 1350            	15.62       	57.3870967741935	3블록           	;
 1351            	2.76        	0           	                	;
 1352            	2.33        	58.9677419354839	3블록           	;
 1353            	2.22        	84.3225806451613	4블록           	;
 1354            	2.15        	72.1290322580645	3블록           	;
 1355            	2.31        	58.7741935483871	3블록           	;
 1356            	3.18        	0           	                	;
 1357            	3.42        	4.25806451612903	3블록           	;
 1358            	19.84       	6.80645161290323	3블록           	;
 1359            	15.85       	12.8387096774194	3블록           	;
 1360            	13.9        	2.06451612903226	3블록           	;
 1361            	12.97       	11.1612903225806	3블록           	;
 1362            	16.29       	1.87096774193548	3블록           	;
 1363            	2.93        	3.35483870967742	3블록           	;
 1364            	11.85       	6.64516129032258	3블록           	;
 1365            	3.01        	6.32258064516129	3블록           	;
 1366            	12.81       	10.8064516129032	3블록           	;
 1367            	5.16        	0           	                	;
 1368            	2.25        	0           	                	;
 1369            	12.48       	0           	                	;
 1370            	12.19       	13.4193548387097	3블록           	;
 1371            	3.24        	4.19354838709677	3블록           	;
 1372            	3.64        	25.3548387096774	3블록           	;
 1373            	3.24        	10.4838709677419	3블록           	;
 1374            	3.05        	0           	                	;
 1375            	2.81        	0           	                	;
 1376            	2.98        	0           	                	;
 1377            	4.39        	11.1612903225806	3블록           	;
 1378            	7.16        	7.67741935483871	3블록           	;
 1379            	2.23        	0.67741935483871	3블록           	;
 1380            	2.29        	0           	                	;
 1381            	7.82        	10.0645161290323	3블록           	;
 1382            	7.59        	51.9354838709678	4블록           	;
 1383            	19.86       	0           	                	;
 1384            	9.48        	2.09677419354839	3블록           	;
 1385            	16.41       	74.9032258064516	3블록           	;
 1386            	2.76        	8.83870967741936	3블록           	;
 1387            	2.12        	36.8709677419355	3블록           	;
 1388            	19.35       	0           	                	;
 1389            	19.44       	10.741935483871	3블록           	;
 1390            	14.66       	0           	                	;
 1391            	11.04       	0           	                	;
 1392            	12.59       	0           	                	;
 1393            	2.42        	0           	                	;
 1394            	6.59        	6.41935483870968	4블록           	;
 1395            	5.38        	0           	                	;
 1396            	2.52        	35.5806451612903	4블록           	;
 1397            	2.39        	0.32258064516129	4블록           	;
 1398            	3.45        	40.9354838709677	4블록           	;
 1399            	2.02        	0           	                	;
 1400            	3.5         	2.19354838709677	4블록           	;
 1401            	2.69        	5.70967741935484	4블록           	;
 1402            	3.07        	33.1935483870968	4블록           	;
 1403            	4.25        	0           	                	;
 1404            	4.29        	0           	                	;
 1405            	4.1         	0           	                	;
 1406            	4.14        	0           	                	;
 1407            	3.75        	0           	                	;
 1408            	2.54        	123.290322580645	4블록           	;
 1409            	5.89        	0           	                	;
 1410            	5.9         	0           	                	;
 1411            	7.49        	48.0322580645161	4블록           	;
 1412            	7.38        	15.4516129032258	4블록           	;
 1413            	2.41        	0           	                	;
 1414            	15.42       	8.45161290322581	3블록           	;
 1415            	18.74       	30.5161290322581	3블록           	;
 1416            	18.74       	5.83870967741935	3블록           	;
 1417            	15.32       	2.80645161290323	3블록           	;
 1418            	15.32       	24.9677419354839	3블록           	;
 1419            	16.41       	24.1935483870968	3블록           	;
 1420            	8.78        	26.2258064516129	3블록           	;
 1421            	20.35       	8.54838709677419	3블록           	;
 1422            	20.6        	0           	                	;
 1423            	20.96       	9.03225806451613	3블록           	;
 1424            	21.09       	15.3225806451613	3블록           	;
 1425            	15.35       	0           	                	;
 1426            	18.18       	2           	3블록           	;
 1427            	19.04       	34.1935483870968	3블록           	;
 1428            	15.49       	6.25806451612903	3블록           	;
 1429            	16.01       	11.3548387096774	3블록           	;
 1430            	15.89       	0           	                	;
 1431            	15.15       	10.2258064516129	3블록           	;
 1432            	15.44       	1.80645161290323	3블록           	;
 1433            	15.15       	28.1612903225806	3블록           	;
 1434            	9           	59.4516129032258	3블록           	;
 1435            	12.73       	14.9677419354839	3블록           	;
 1436            	10.51       	17.8387096774194	3블록           	;
 1437            	9.41        	0.967741935483871	3블록           	;
 1438            	19.85       	13.2258064516129	3블록           	;
 1439            	17.47       	6.16129032258065	3블록           	;
 1440            	14.92       	2.16129032258065	3블록           	;
 1441            	19.86       	0           	                	;
 1442            	19.54       	22.2903225806452	3블록           	;
 1443            	19.53       	3.90322580645161	3블록           	;
 1444            	13.44       	16.258064516129	3블록           	;
 1445            	11.52       	24.7741935483871	3블록           	;
 1446            	14.2        	38.3548387096774	3블록           	;
 1447            	9.75        	5.80645161290323	3블록           	;
 1448            	9.87        	0           	                	;
 1449            	19.41       	14.7096774193548	3블록           	;
 1450            	20.84       	8.2258064516129	3블록           	;
 1451            	20.84       	0           	                	;
 1452            	20.78       	0           	                	;
 1453            	18.25       	0           	                	;
 1454            	16.89       	10.1935483870968	3블록           	;
 1455            	17.98       	3.67741935483871	3블록           	;
 1456            	20.59       	0.838709677419355	3블록           	;
 1457            	15.42       	17.2258064516129	3블록           	;
 1458            	14.64       	8.45161290322581	3블록           	;
 1459            	5.52        	0           	                	;
 1460            	7.73        	20.4516129032258	4블록           	;
 1461            	7.46        	0           	                	;
 1462            	5.56        	0           	                	;
 1463            	5.43        	6.70967741935484	4블록           	;
 1464            	5.53        	0           	                	;
 1465            	6.58        	0           	                	;
 1466            	6.64        	0           	                	;
 1467            	5.38        	0           	                	;
 1468            	6.69        	0           	                	;
 1469            	6.64        	0.32258064516129	4블록           	;
 1470            	16.06       	3.93548387096774	4블록           	;
 1471            	15.86       	0           	                	;
 1472            	9.86        	6.09677419354839	4블록           	;
 1473            	9.68        	8.64516129032258	4블록           	;
 1474            	10.03       	0           	                	;
 1475            	9.76        	0           	                	;
 1476            	12.97       	0           	                	;
 1477            	12.69       	0           	                	;
 1478            	11.45       	4           	4블록           	;
 1479            	11.59       	0           	                	;
 1480            	7.66        	26.8387096774194	4블록           	;
 1481            	2.57        	0           	                	;
 1482            	4.76        	2.87096774193548	4블록           	;
 1483            	4.14        	0           	                	;
 1484            	4.48        	5.09677419354839	4블록           	;
 1485            	4.34        	5.03225806451613	4블록           	;
 1486            	3.96        	0           	                	;
 1487            	5.38        	23.0645161290323	4블록           	;
 1488            	3.88        	16.1290322580645	4블록           	;
 1489            	3.96        	81.258064516129	4블록           	;
 1490            	2.29        	0           	                	;
 1491            	19.85       	0           	                	;
 1492            	13.29       	0           	                	;
 1493            	13.33       	0           	                	;
 1494            	13.3        	0           	                	;
 1495            	3.02        	9.90322580645161	3블록           	;
 1496            	2.81        	0           	                	;
 1497            	2.46        	0           	                	;
 1498            	2.46        	0           	                	;
 1499            	9           	0           	                	;
 1500            	23.38       	0           	                	;
 1501            	23.19       	1.41935483870968	3블록           	;
 1502            	21.09       	0           	3블록           	;
 1503            	20.59       	0           	                	;
 1504            	3.47        	0           	                	;
 1505            	16.91       	1.29032258064516	4블록           	;
 1506            	16.91       	1           	4블록           	;
 1507            	7.27        	23.8064516129032	4블록           	;
 1508            	9.62        	37.3548387096774	4블록           	;
 1509            	12.98       	60.6451612903226	4블록           	;
 1510            	6.08        	15.7096774193548	4블록           	;
 1511            	6.39        	0           	                	;
 1512            	6.41        	0           	                	;
 1513            	14.57       	4.83870967741935	4블록           	;
 1514            	14.25       	0           	                	;
 1515            	13.15       	13.4193548387097	4블록           	;
 1516            	12.97       	0           	                	;
 1517            	13.38       	0           	                	;
 1518            	10.03       	0           	                	;
 1519            	9.78        	0           	                	;
 1520            	6.78        	4.32258064516129	4블록           	;
 1521            	6.86        	0           	                	;
 1522            	7.43        	0           	                	;
 1523            	6.04        	5.80645161290323	4블록           	;
 1524            	6.61        	0           	                	;
 1525            	7.89        	0           	                	;
 1526            	8.77        	48.6774193548387	4블록           	;
 1527            	7.68        	5.7741935483871	4블록           	;
 1528            	5.69        	27.0967741935484	4블록           	;
 1529            	6.21        	0           	                	;
 1530            	6.21        	1.45161290322581	4블록           	;
 1531            	4.83        	5.09677419354839	4블록           	;
 1532            	6.72        	0           	                	;
 1533            	6.1         	0           	                	;
 1534            	19.98       	0           	                	;
 1535            	13.4        	0           	                	;
 1536            	16.5        	14.258064516129	3블록           	;
 1537            	21.95       	20.0645161290323	3블록           	;
 1538            	21.02       	6.83870967741935	3블록           	;
 1539            	2.57        	0           	                	;
 1540            	2.18        	0           	                	;
 1541            	2.13        	44.6774193548387	4블록           	;
 1542            	2.15        	0           	                	;
 1543            	2.18        	64.1290322580645	4블록           	;
 1544            	2.13        	0           	                	;
 1545            	3.66        	0           	                	;
 1546            	3.22        	0           	                	;
 1547            	3.22        	0           	                	;
 1548            	2.21        	129.774193548387	4블록           	;
 1549            	2.46        	66.0322580645161	4블록           	;
 1550            	2.4         	0           	                	;
 1551            	4.07        	0           	                	;
 1552            	4.27        	24.5161290322581	4블록           	;
 1553            	2.37        	0           	                	;
 1554            	2.27        	30.8709677419355	4블록           	;
 1555            	2.3         	14.1935483870968	4블록           	;
 1556            	2.36        	92.8387096774193	4블록           	;
 1557            	2.47        	56.3548387096774	4블록           	;
 1558            	3.65        	0           	                	;
 1559            	3.7         	37.3548387096774	4블록           	;
 1560            	4.8         	5.83870967741935	4블록           	;
 1561            	4.8         	0           	                	;
 1562            	4.45        	1.06451612903226	4블록           	;
 1563            	4.45        	0           	                	;
 1564            	2.39        	0           	                	;
 1565            	2.37        	0           	                	;
 1566            	4.99        	0           	                	;
 1567            	4.99        	0           	                	;
 1568            	2.36        	21.5806451612903	4블록           	;
 1569            	3.58        	15.6129032258065	4블록           	;
 1570            	4.03        	24.6774193548387	4블록           	;
 1571            	2.79        	23.7741935483871	4블록           	;
 1572            	2.37        	0.67741935483871	4블록           	;
 1573            	2.26        	39.4193548387097	4블록           	;
 1574            	2.23        	0           	                	;
 1575            	2.21        	13.9032258064516	4블록           	;
 1576            	3.83        	416.967741935484	4블록           	;
 1577            	2.22        	29.1935483870968	4블록           	;
 1578            	2.18        	0           	                	;
 1579            	3.61        	3.64516129032258	4블록           	;
 1580            	3.61        	5.12903225806452	4블록           	;
 1581            	4.28        	0           	                	;
 1582            	3.93        	0           	                	;
 1583            	2.32        	0           	                	;
 1584            	2.19        	0           	                	;
 1585            	5.56        	15          	4블록           	;
 1586            	3.3         	3.67741935483871	4블록           	;
 1587            	0           	0           	                	;
 1588            	15.76       	8.80645161290323	4블록           	;
 1589            	16.15       	5.74193548387097	4블록           	;
 1590            	13.05       	31.258064516129	4블록           	;
 1591            	14.02       	6.48387096774194	4블록           	;
 1592            	13.01       	14.4193548387097	4블록           	;
 1593            	10.02       	0           	                	;
 1594            	6.32        	50          	4블록           	;
 1595            	11.89       	59.1935483870968	4블록           	;
 1596            	14.11       	0           	                	;
 1597            	15.4        	5.61290322580645	4블록           	;
 1598            	0           	0           	                	;
 1599            	3.03        	8.58064516129032	3블록           	;
 1600            	13.62       	0           	                	;
 1601            	2.2         	25.0645161290323	3블록           	;
 1602            	2.17        	1.12903225806452	3블록           	;
 1603            	2.25        	3.16129032258065	3블록           	;
 1604            	2.23        	0           	                	;
 1605            	2.23        	0           	                	;
 1606            	2.26        	56.4516129032258	3블록           	;
 1607            	2.29        	0.774193548387097	4블록           	;
 1608            	4.08        	0           	                	;
 1609            	2.17        	0           	                	;
 1610            	2.27        	0           	                	;
 1407-1          	3.75        	0           	                	;

[RESERVOIRS]
;ID              	Head        	Pattern         
 R1              	65.1        	                	;

[TANKS]
;ID              	Elevation   	InitLevel   	MinLevel    	MaxLevel    	Diameter    	MinVol      	VolCurve

[PIPES]
;ID              	Node1           	Node2           	Length      	Diameter    	Roughness   	MinorLoss   	Status
 1               	1236            	1237            	99.85207    	150         	100         	0           	Open  	;
 2               	1238            	1239            	90.80138    	200         	100         	0           	Open  	;
 3               	1237            	1240            	138.9884    	100         	100         	0           	Open  	;
 4               	1241            	1242            	3.89455     	100         	100         	0           	Open  	;
 5               	1243            	1244            	29.42152    	200         	100         	0           	Open  	;
 6               	1245            	1246            	299.69045   	200         	100         	0           	Open  	;
 7               	1247            	1248            	365.68033   	500         	100         	0           	Open  	;
 8               	1249            	1250            	36.89272    	200         	100         	0           	Open  	;
 9               	1251            	1252            	52.70443    	200         	100         	0           	Closed	;
 10              	R1              	1254            	343.95835   	500         	100         	0           	Open  	;
 11              	1255            	1256            	55.36887    	350         	100         	0           	Closed	;
 12              	1257            	1258            	59.02755    	200         	100         	0           	Open  	;
 13              	1259            	1260            	53.45989    	100         	100         	0           	Open  	;
 14              	1261            	1262            	4.64612     	100         	100         	0           	Open  	;
 15              	1263            	1264            	20.35739    	200         	100         	0           	Closed	;
 16              	1265            	1266            	4.83131     	300         	100         	0           	Open  	;
 17              	1267            	1268            	1.3304      	80          	100         	0           	Open  	;
 18              	1269            	1270            	59.10035    	100         	100         	0           	Open  	;
 19              	1271            	1272            	145.96826   	80          	100         	0           	Open  	;
 20              	1266            	1273            	12.42123    	300         	100         	0           	Open  	;
 21              	1274            	1275            	9.98924     	350         	100         	0           	Open  	;
 22              	1276            	1269            	107.34099   	100         	100         	0           	Open  	;
 23              	1270            	1267            	31.58923    	100         	100         	0           	Open  	;
 24              	1251            	1277            	237.49949   	200         	100         	0           	Open  	;
 25              	1267            	1278            	90.03961    	100         	100         	0           	Open  	;
 26              	1254            	1279            	127.24815   	500         	100         	0           	Open  	;
 27              	1275            	1280            	234.29767   	350         	100         	0           	Open  	;
 28              	1281            	1282            	3.54998     	200         	100         	0           	Open  	;
 29              	1283            	1284            	17.32016    	100         	100         	0           	Open  	;
 30              	1285            	1286            	76.23435    	200         	100         	0           	Open  	;
 31              	1286            	1281            	25.91314    	200         	100         	0           	Open  	;
 32              	1287            	1288            	104.1564    	100         	100         	0           	Open  	;
 33              	1277            	1289            	218.06952   	200         	100         	0           	Open  	;
 34              	1281            	1287            	41.95895    	100         	100         	0           	Open  	;
 35              	1280            	1290            	266.12206   	200         	100         	0           	Open  	;
 36              	1291            	1283            	20.83572    	200         	100         	0           	Open  	;
 37              	1281            	1292            	5.46478     	200         	100         	0           	Open  	;
 38              	1293            	1294            	7.10314     	100         	100         	0           	Open  	;
 39              	1295            	1296            	50.81383    	75          	100         	0           	Open  	;
 40              	1297            	1290            	10.11644    	100         	100         	0           	Open  	;
 41              	1298            	1299            	10.11644    	100         	100         	0           	Open  	;
 42              	1300            	1266            	47.30132    	300         	100         	0           	Open  	;
 43              	1271            	1301            	118.17891   	100         	100         	0           	Open  	;
 44              	1241            	1300            	119.27807   	300         	100         	0           	Open  	;
 45              	1302            	1300            	87.46622    	75          	100         	0           	Open  	;
 46              	1273            	1303            	5.04131     	80          	100         	0           	Open  	;
 47              	1299            	1277            	262.30829   	200         	100         	0           	Open  	;
 48              	1304            	1280            	239.42006   	350         	100         	0           	Open  	;
 49              	1285            	1294            	13.86014    	80          	100         	0           	Open  	;